/*--------------------------------*- C++ -*----------------------------------*\
  =========                 |
  \\      /  F ield         | OpenFOAM: The Open Source CFD Toolbox
   \\    /   O peration     | Website:  https://openfoam.org
    \\  /    A nd           | Version:  8
     \\/     M anipulation  |
\*---------------------------------------------------------------------------*/
FoamFile
{
    version         2;
    format          ascii;
    class           volScalarField;
    location        "0";
    object          CO2;
}
// * * * * * * * * * * * * * * * * * * * * * * * * * * * * * * * * * * * * * //

dimensions      [ 0 0 0 0 0 0 0 ];

internalField   uniform 0;

boundaryField
{
    inletJet
    {
        type            fixedValue;
        value           uniform 0;
    }
    inletPilot
    {
        type            fixedValue;
        value           uniform 0.1098;
    }
    inletAir
    {
        type            fixedValue;
        value           uniform 0;
    }
    wallInlet
    {
        type            fixedValue;
        value           uniform 0.1098;
    }
    wallOutside
    {
        type            zeroGradient;
    }
    outlet
    {
        type            zeroGradient;
    }
}


// ************************************************************************* //
