/*--------------------------------*- C++ -*----------------------------------*\
  =========                 |
  \\      /  F ield         | OpenFOAM: The Open Source CFD Toolbox
   \\    /   O peration     | Website:  https://openfoam.org
    \\  /    A nd           | Version:  6
     \\/     M anipulation  |
\*---------------------------------------------------------------------------*/
FoamFile
{
    version     2.0;
    format      ascii;
    class       dictionary;
    location    "system";
    object      fvSchemes;
}
// * * * * * * * * * * * * * * * * * * * * * * * * * * * * * * * * * * * * * //

ddtSchemes
{
    default         backward;
}

gradSchemes
{
    default         Gauss linear;
}

divSchemes
{
    default         none;

    // Changed for implicit LES

    div(phi,U)      Gauss GammaV 0.3;
    div(phid,p)     Gauss Gamma 0.3;
    div(phi,K)      Gauss linear; 
    div(((rho*nuEff)*dev2(T(grad(U))))) Gauss linear;
    div(phi,Yi_h)   Gauss Gamma 1;
    div(meshPhi,p)   Gauss linear;

}

laplacianSchemes
{
    default         Gauss linear corrected;
}

interpolationSchemes
{
    default         linear;
}

snGradSchemes
{
    default         corrected;
}

fluxRequired
{
   default	no;
   p;
}


// ************************************************************************* //
